/*--------------------------------*- C++ -*----------------------------------*\
| =========                 |                                                 |
| \\      /  F ield         | OpenFOAM: The Open Source CFD Toolbox           |
|  \\    /   O peration     | Version:  4.x                                   |
|   \\  /    A nd           | Web:      www.OpenFOAM.org                      |
|    \\/     M anipulation  |                                                 |
\*---------------------------------------------------------------------------*/
FoamFile
{
    version     2.0;
    format      ascii;
    class       dictionary;
    location    "constant";
    object      thermophysicalProperties;
}
// * * * * * * * * * * * * * * * * * * * * * * * * * * * * * * * * * * * * * //

// thermoType
// {
//     type            hePsiThermo;
//     mixture         pureMixture;
//     transport       const;
//     thermo          hConst;
//     equationOfState perfectGas;
//     specie          specie;
//     energy          sensibleEnthalpy;
// }

// mixture
// {
//     specie
//     {
//         nMoles          1;
//         molWeight       28.96;
//     }
//     thermodynamics
//     {
//         Cp              1004.5;
//         Hf              0;
//         Tref            0;
//     }
//     transport
//     {
//         mu              0;
//         Pr              0.72;
//     }
// }

thermoType      hPsiThermo<pureMixture<constTransport<specieThermo<hConstThermo<perfectGas>>>>>;

// name, nMoles, mol weight, CP, Hf, mu, Pr;
mixture         air 1 28.9 1004.5 0 0 0.72;

// ************************************************************************* //
